/*--------------------------------*- C++ -*----------------------------------*\
| =========                 |                                                 |
| \\      /  F ield         | OpenFOAM: The Open Source CFD Toolbox           |
|  \\    /   O peration     | Version:  1.5                                   |
|   \\  /    A nd           | Web:      http://www.OpenFOAM.org               |
|    \\/     M anipulation  |                                                 |
\*---------------------------------------------------------------------------*/
FoamFile
{
    version     2.0;
    format      ascii;
    class       dictionary;
    object      blockMeshDict;
}
// * * * * * * * * * * * * * * * * * * * * * * * * * * * * * * * * * * * * * //

convertToMeters 1;

vertices        
(
    (-2 -2 -0.1)
    (2 -2 -0.1)
    (2 2 -0.1)
    (-2 2 -0.1)
    (-1 -1 -0.1)
    (1 -1 -0.1)
    (1 1 -0.1)
    (-1 1 -0.1)
    (-2 -2 0.1)
    (2 -2 0.1)
    (2 2 0.1)
    (-2 2 0.1)
    (-1 -1 0.1)
    (1 -1 0.1)
    (1 1 0.1)
    (-1 1 0.1)
);

blocks          
(
    hex (3 2 10 11 7 6 14 15) (50 1 50) simpleGrading (1 1 1)
    hex (0 3 11 8 4 7 15 12) (50 1 50) simpleGrading (1 1 1)
    hex (2 1 9 10 6 5 13 14) (50 1 50) simpleGrading (1 1 1)
    hex (1 0 8 9 5 4 12 13) (50 1 50) simpleGrading (1 1 1)
);

edges           
(
);

patches         
(
    patch left_out 
    (
          (0 3 11 8)
    )
    patch left_in 
    (
          (4 12 15 7)
    )
    patch right_out 
    (
          (1 9 10 2)
    )
    patch right_in 
    (
          (5 6 14 13)
    )
        patch top_out 
    (
          (3 2 10 11)
    )
    patch top_in 
    (
          (7 15 14 6)
    )
    patch bot_out 
    (
          (0 8 9 1)
    )
    patch bot_in 
    (
          (5 13 12 4)
    )

    empty frontAndBack 
    (
        (0 4 7 3)
		(0 1 5 4)
		(1 2 6 5)
		(2 3 7 6)
        (8 11 15 12)
        (15 11 10 14)
        (13 14 10 9)
        (8 12 13 9)
    )
);

mergePatchPairs 
(
);

// ************************************************************************* //
