/*--------------------------------*- C++ -*----------------------------------*\
| =========                 |                                                 |
| \\      /  F ield         | OpenFOAM: The Open Source CFD Toolbox           |
|  \\    /   O peration     | Version:  1.5                                   |
|   \\  /    A nd           | Web:      http://www.OpenFOAM.org               |
|    \\/     M anipulation  |                                                 |
\*---------------------------------------------------------------------------*/
FoamFile
{
    version     2.0;
    format      ascii;
    class       dictionary;
    object      fvSolution;
}
// * * * * * * * * * * * * * * * * * * * * * * * * * * * * * * * * * * * * * //

solvers
{
    T PCG
    {
        preconditioner   DIC;
        tolerance        1e-07;
        relTol           0;
    };

    cellMotionU
    {
        type            coupled;  // optional, defaults to segregated
        solver          PBiCCCG;
        preconditioner  DILU;
        tolerance       (1e-07 1e-07 1e-07);
        relTol          (0 0 0);
    }

    
    // cellDisplacement
    // {
    //     type            coupled;  // optional, defaults to segregated
    //     solver          PBiCCCG;
    //     preconditioner  DILU;
    //     tolerance       (1e-07 1e-07 1e-07);
    //     relTol          (0 0 0);
    // }

    cellDisplacement PCG
    {
        preconditioner   DIC;
        tolerance        1e-08;
        relTol           0;
    }

}

SIMPLE
{
    nNonOrthogonalCorrectors 0;
}

// ************************************************************************* //
