/*--------------------------------*- C++ -*----------------------------------*\
| =========                 |                                                 |
| \\      /  F ield         | OpenFOAM: The Open Source CFD Toolbox           |
|  \\    /   O peration     | Version:  1.5                                   |
|   \\  /    A nd           | Web:      http://www.OpenFOAM.org               |
|    \\/     M anipulation  |                                                 |
\*---------------------------------------------------------------------------*/
FoamFile
{
    version     2.0;
    format      ascii;
    class       dictionary;
    object      blockMeshDict;
}
// * * * * * * * * * * * * * * * * * * * * * * * * * * * * * * * * * * * * * //

convertToMeters 1;

vertices
(
    (-2 -2 -0.1)
    (-1 -2 -0.1)
    (1 -2 -0.1)
    (2 -2 -0.1)
    (-2 -1 -0.1)
    (-1 -1 -0.1)
    (1 -1 -0.1)
    (2 -1 -0.1)
    (-2 1 -0.1)
    (-1 1 -0.1)
    (1 1 -0.1)
    (2 1 -0.1)
    (-2 2 -0.1)
    (-1 2 -0.1)
    (1 2 -0.1)
    (2 2 -0.1)
    (-2 -2 0.1)
    (-1 -2 0.1)
    (1 -2 0.1)
    (2 -2 0.1)
    (-2 -1 0.1)
    (-1 -1 0.1)
    (1 -1 0.1)
    (2 -1 0.1)
    (-2 1 0.1)
    (-1 1 0.1)
    (1 1 0.1)
    (2 1 0.1)
    (-2 2 0.1)
    (-1 2 0.1)
    (1 2 0.1)
    (2 2 0.1)


);

blocks
(
    hex (0 1 5 4 16 17 21 20) (15 15 1) simpleGrading (1 1 1)
    hex (1 2 6 5 17 18 22 21) (30 15 1) simpleGrading (1 1 1)
    hex (2 3 7 6 18 19 23 22) (15 15 1) simpleGrading (1 1 1)
    hex (4 5 9 8 20 21 25 24) (15 30 1) simpleGrading (1 1 1)
    hex (6 7 11 10 22 23 27 26) (15 30 1) simpleGrading (1 1 1)
    hex (8 9 13 12 24 25 29 28) (15 15 1) simpleGrading (1 1 1)
    hex (9 10 14 13 25 26 30 29) (30 15 1) simpleGrading (1 1 1)
    hex (10 11 15 14 26 27 31 30) (15 15 1) simpleGrading (1 1 1)
);

edges
(
);

boundary
(

left_out
{
    type patch;
    faces
    (
        (0 4 20 16)
        (4 8 24 20)
        (8 12 28 24)
    );
}

left_in
{
    type patch;
    faces
    (
        (5 9 25 21)
    );
    inGroups (inside);

}

right_out
{
    type patch;
    faces
    (
        (3 7 23 19)
        (7 11 27 23)
        (11 15 31 27)
    );
}

right_in
{
    type patch;
    faces
    (
        (10 6 22 26)
    );
    inGroups (inside);
 }

top_out
{
    type patch;
    faces
    (
        (12 13 29 28)
        (13 14 30 29)
        (14 15 31 30)
    );
}

top_in
{
    type patch;
    faces
    (
        (10 9 25 26)
    );
    inGroups (inside);
}

bot_out
{
    type patch;
    faces
    (
        (1 0 16 17)
        (2 1 17 18)
        (3 2 18 19)
    );
}

bot_in
{
    type patch;
    faces
    (
        (6 5 21 22)
    );
    inGroups (inside);
}


frontAndBack
{
    type empty;
    faces
    (
        (0 1 5 4)
        (1 2 6 5)
        (2 3 7 6)
        (4 5 9 8)
        (6 7 11 10)
        (8 9 13 12)
        (9 10 14 13)
        (10 11 15 14)
        (16 17 21 20)
        (17 18 22 21)
        (18 19 23 22)
        (20 21 25 24)
        (22 23 27 26)
        (24 25 29 28)
        (25 26 30 29)
        (26 27 31 30)
    );
}

);


mergePatchPairs
(
);

// ************************************************************************* //
