/*--------------------------------*- C++ -*----------------------------------*\
| =========                 |                                                 |
| \\      /  F ield         | OpenFOAM: The Open Source CFD Toolbox           |
|  \\    /   O peration     | Version:  1.5                                   |
|   \\  /    A nd           | Web:      http://www.OpenFOAM.org               |
|    \\/     M anipulation  |                                                 |
\*---------------------------------------------------------------------------*/
FoamFile
{
    version     2.0;
    format      ascii;
    class       dictionary;
    object      fvSchemes;
}
// * * * * * * * * * * * * * * * * * * * * * * * * * * * * * * * * * * * * * //

ddtSchemes
{
    default steadyState;
}

gradSchemes
{
    // default         cellMDLimited Gauss linear 0.5;
    // grad(T)         cellMDLimited Gauss linear 0.5;
    default         Gauss linear;    
}

divSchemes
{
    default         Gauss linear;
}

laplacianSchemes
{
    // default Gauss linear corrected;
    // laplacian(DT,T)  Gauss linear corrected;
    // laplacian(DT,subsetT) Gauss linear corrected;
    default Gauss linear uncorrected;
}

interpolationSchemes
{
    // default         linear corrected;
    default linear;
}

snGradSchemes
{
    default         uncorrected;
}

fluxRequired
{
    default         no;
    T;
}

// ************************************************************************* //
